Program Version,EnergyPlus, Version 9.6.0-f420c06a69, YMD=2024.06.07 15:33,
   ** Warning ** ManageSizing: For a zone sizing run, there must be at least 1 Sizing:Zone input object. SimulationControl Zone Sizing option ignored.
   ** Warning ** GetHTSurfaceData: Surfaces with interface to Ground found but no "Ground Temperatures" were input.
   **   ~~~   ** Found first in surface=BGWALL_LOWER_LDF
   **   ~~~   ** Defaults, constant throughout the year of (18.0) will be used.
   ** Warning ** CalculateZoneVolume: 1 zone is not fully enclosed. For more details use:  Output:Diagnostics,DisplayExtrawarnings; 
   ** Warning ** CheckUsedConstructions: There are 12 nominally unused constructions in input.
   **   ~~~   ** For explicit details on each unused construction, use Output:Diagnostics,DisplayExtraWarnings;
   ************* Testing Individual Branch Integrity
   ************* All Branches passed integrity testing
   ************* Testing Individual Supply Air Path Integrity
   ************* All Supply Air Paths passed integrity testing
   ************* Testing Individual Return Air Path Integrity
   ************* All Return Air Paths passed integrity testing
   ************* No node connection errors were found.
   ************* Beginning Simulation
   ** Warning ** ZoneHVAC:IdealLoadsAirSystem "LIVING_UNIT1 IDEAL LOADS AIR SYSTEM" Supply humidity ratio = 6.81995E-002 exceeds saturation limit 1.15384E-002 [kgWater/kgDryAir]
   **   ~~~   **  Simulation continuing . . . 
   **   ~~~   **  Environment=DENVER-AURORA-BUCKLEY.AFB_CO_USA ANN CLG .4% CONDNS DB=>MWB, at Simulation time=07/21 00:15 - 00:30
   ************* Simulation Error Summary *************
   ************* There are 38 unused schedules in input.
   ************* There are 23 unused week schedules in input.
   ************* There are 31 unused day schedules in input.
   ************* Use Output:Diagnostics,DisplayUnusedSchedules; to see them.
   *************
   ************* ===== Recurring Error Summary =====
   ************* The following recurring error messages occurred.
   *************
   *************  ** Warning ** ZoneHVAC:IdealLoadsAirSystem "LIVING_UNIT1 IDEAL LOADS AIR SYSTEM" Supply humidity ratio exceeds saturation limit warning continues, delta max/min [kgWater/kgDryAir]...
   *************  **   ~~~   **   This error occurred 6268 total times;
   *************  **   ~~~   **   during Warmup 4875 times;
   *************  **   ~~~   **   during Sizing 0 times.
   *************  **   ~~~   **   Max=5.683460E-002  Min=2.248693E-003
   *************
   *************
   ************* ===== Final Error Summary =====
   ************* The following error categories occurred.  Consider correcting or noting.
   ************* Nominally Unused Constructions
   ************* ..The nominally unused constructions warning is provided to alert you to potential conditions that can cause
   ************* ..extra time during simulation. Each construction is calculated by the algorithm indicated in the HeatBalanceAlgorithm
   ************* ..object. You may remove the constructions indicated (when you use the DisplayExtraWarnings option).
   *************
   ************* EnergyPlus Warmup Error Summary. During Warmup: 0 Warning; 0 Severe Errors.
   ************* EnergyPlus Sizing Error Summary. During Sizing: 1 Warning; 0 Severe Errors.
   ************* EnergyPlus Completed Successfully-- 6273 Warning; 0 Severe Errors; Elapsed Time=00hr 27min 10.15sec
